.MODEL pch.6            PMOS   (                    LMIN     = 3.5E-07
+LMAX    = '8.228E-07-dxl' WMIN    = '7.823E-07-dxw' WMAX    = '1.1823E-06-dxw'
+LEVEL   = 49             TNOM     = 25             VERSION  = 3.1
+TLEV    = 1              TLEVC    = 1              ACM      = 12
+LDIF    = 1.2E-07        HDIF     = hdifp          RSH      = 153
+RD      = 0              RS       = 0              TOX      = toxp
+XJ      = 1E-07          NCH      = 8.52E+16       LLN      = 1
+LWN     = 1              WLN      = 1              WWN      = 1
+LINT    = 5E-08          LL       = 0              LW       = 0
+LWL     = 0              WINT     = 5E-08          WL       = 0
+WW      = 0              WWL      = 0              MOBMOD   = 1
+BINUNIT = 2              XL       = '3E-08+dxl'    XW       = '1.5E-07+dxw'
+DWG     = 0              DWB      = 0              VTH0     = 'dvtp-0.7641595'
+LVTH0   = -9.297831E-09  WVTH0    = -3.176559E-08  PVTH0    = 2.022053E-14
+K1      = 0.5075374      LK1      = -3.903041E-08  WK1      = -1.276891E-07
+PK1     = 4.179296E-14   K2       = -0.02724116    LK2      = 3.585289E-09
+WK2     = 2.900416E-08   PK2      = -7.744009E-15  K3       = 0
+DVT0    = 0              DVT1     = 0              DVT2     = 0
+DVT0W   = 0              DVT1W    = 0              DVT2W    = 0
+NLX     = 0              W0       = 0              K3B      = 0
+VSAT    = 208540         LVSAT    = 0.03121112     WVSAT    = 0.0345072
+PVSAT   = -2.597702E-08  UA       = 4.029183E-10   LUA      = 3.056212E-17
+WUA     = -2.669692E-17  PUA      = 1.065072E-24   UB       = 2.37556E-18
+LUB     = 5.329574E-26   WUB      = -1.190731E-24  PUB      = 1.576872E-31
+UC      = -9.487141E-12  LUC      = -8.252123E-18  WUC      = -4.034049E-17
+PUC     = 1.258483E-23   RDSW     = 900            PRWB     = 0
+PRWG    = 0              WR       = 1              U0       = 0.01219331
+LU0     = -1.174895E-09  WU0      = -2.122757E-10  PU0      = 1.022139E-16
+A0      = -1.103584      LA0      = 1.025515E-06   WA0      = 1.112448E-06
+PA0     = -7.675582E-13  KETA     = -0.01097397    LKETA    = 2.136461E-09
+WKETA   = 8.091276E-09   PKETA    = -4.719369E-15  A1       = 0
+A2      = 0.4            AGS      = 0.02           B0       = 0
+B1      = 0              VOFF     = -0.1698755     LVOFF    = -8.865221E-09
+WVOFF   = -1.614182E-08  PVOFF    = 8.897133E-15   NFACTOR  = 3.666665
+LNFACTOR= -4.231673E-07  WNFACTOR = -1.561478E-06  PNFACTOR = 3.209575E-13
+CIT     = -0.00176165    LCIT     = 5.676309E-10   WCIT     = 1.499302E-09
+PCIT    = -4.296576E-16  CDSC     = 0              CDSCB    = 3E-05
+CDSCD   = 0              ETA0     = -0.01347405    LETA0    = 1.011287E-08
+WETA0   = 9.70648E-09    PETA0    = -6.341908E-15  ETAB     = -0.001790114
+LETAB   = 7.952579E-10   WETAB    = 1.845573E-09   PETAB    = -7.962437E-16
+DSUB    = 0              PCLM     = 5.310853       LPCLM    = -1.739951E-06
+WPCLM   = -2.154504E-06  PPCLM    = 1.158494E-12   PDIBLC1  = 1E-05
+PDIBLC2 = 0.0001         PDIBLCB  = -0.05990779    LPDIBLCB = 6.015458E-08
+DROUT   = 0              PSCBE1   = 6.241878E+08   PSCBE2   = 1E-20
+PVAG    = 0              DELTA    = 0.01           ALPHA0   = 8E-09
+BETA0   = 18             KT1      = -0.463275      LKT1     = -2.724455E-08
+WKT1    = -7.011332E-08  PKT1     = 3.114384E-14   KT2      = -0.04331045
+LKT2    = 6.21685E-10    WKT2     = -5.031174E-09  PKT2     = 2.298904E-15
+AT      = -16355.55      LAT      = -0.02532754    UTE      = -1.682923
+LUTE    = 8.133089E-08   WUTE     = -1.604939E-07  PUTE     = 7.229621E-14
+UA1     = -3.270858E-10  LUA1     = -1.686723E-16  WUA1     = -1.213949E-15
+PUA1    = 5.277313E-22   UB1      = -3.007486E-18  LUB1     = 6.618557E-25
+WUB1    = 2.865301E-24   PUB1     = -1.044589E-30  UC1      = 3.054052E-11
+LUC1    = -3.11268E-17   WUC1     = -3.172416E-18  PUC1     = 2.169081E-23
+KT1L    = 0              PRT      = 0              JS       = 0.0001
+JSW     = 8.5E-12
+CJ      = cjp            CJSW     = cjswp          CJSWG    = cjswgp
+MJ      = 0.6008857      MJSW     = 0.4471985      MJSWG    = 0.4471985
+PB      = 1.0864354      PBSW     = 1.0864354      PBSWG    = 1.0864354
+CTA     = 9.168207E-4    CTP      = 1.441221E-3    PTA      = 1.249266E-3
+PTP     = 1.249266E-3    CGDO     = cgop           CGSO     = cgop
+XTI     = 3              N        = 1              CAPMOD   = 0
+NQSMOD  = 0              XPART    = 1              CF       = 0
+NLEV    = 3              AF       = 1.0            KF       = 3.5E-24
+CALCACM = 1              SFVTFLAG = 0              VFBFLAG  = 1         )
